# generated using pymatgen
data_Al
_symmetry_space_group_name_H-M   'P 1'
_cell_length_a   5.66482289
_cell_length_b   5.66482298
_cell_length_c   26.94563606
_cell_angle_alpha   89.99999998
_cell_angle_beta   89.99999965
_cell_angle_gamma   60.00000058
_symmetry_Int_Tables_number   1
_chemical_formula_structural   Al
_chemical_formula_sum   Al16
_cell_volume   748.84468779
_cell_formula_units_Z   16
loop_
 _symmetry_equiv_pos_site_id
 _symmetry_equiv_pos_as_xyz
  1  'x, y, z'
loop_
 _atom_site_type_symbol
 _atom_site_label
 _atom_site_symmetry_multiplicity
 _atom_site_fract_x
 _atom_site_fract_y
 _atom_site_fract_z
 _atom_site_occupancy
  Al  Al0  1  -0.00000000  0.00000000  0.37016738  1
  Al  Al1  1  0.50000000  0.00000000  0.37016738  1
  Al  Al2  1  0.00000000  0.50000000  0.37016738  1
  Al  Al3  1  0.50000000  0.50000000  0.37016738  1
  Al  Al4  1  0.16666667  0.16666667  0.45672246  1
  Al  Al5  1  0.66666667  0.16666667  0.45672246  1
  Al  Al6  1  0.16666667  0.66666667  0.45672246  1
  Al  Al7  1  0.66666667  0.66666667  0.45672246  1
  Al  Al8  1  -0.16666679  0.33333334  0.54277794  1
  Al  Al9  1  0.33333326  0.33333345  0.54277785  1
  Al  Al10  1  -0.16666644  0.83333300  0.54277797  1
  Al  Al11  1  0.33333337  0.83333311  0.54277785  1
  Al  Al12  1  -0.00000055  -0.00000048  0.62939941  1
  Al  Al13  1  0.50000084  -0.00000007  0.62939942  1
  Al  Al14  1  -0.00000044  0.50000039  0.62939939  1
  Al  Al15  1  0.50000015  0.50000041  0.62939938  1
