104
Lattice="11.45512985522207 0.0 0.0 5.727564927611035 9.92043345827187 0.0 0.0 0.0 31.691342951089922" Properties=species:S:1:pos:R:3:tags:I:1 pbc="T T F"
Al       1.43189123       0.82670279      10.00000000        6
Al       4.29567370       0.82670279      10.00000000        6
Al       7.15945616       0.82670279      10.00000000        6
Al      10.02323862       0.82670279      10.00000000        6
Al       2.86378246       3.30681115      10.00000000        6
Al       5.72756493       3.30681115      10.00000000        6
Al       8.59134739       3.30681115      10.00000000        6
Al      11.45512986       3.30681115      10.00000000        6
Al       4.29567370       5.78691952      10.00000000        6
Al       7.15945616       5.78691952      10.00000000        6
Al      10.02323862       5.78691952      10.00000000        6
Al      12.88702109       5.78691952      10.00000000        6
Al       5.72756493       8.26702788      10.00000000        6
Al       8.59134739       8.26702788      10.00000000        6
Al      11.45512986       8.26702788      10.00000000        6
Al      14.31891232       8.26702788      10.00000000        6
Al      -0.00000000       1.65340558      12.33826859        5
Al       2.86378246       1.65340558      12.33826859        5
Al       5.72756493       1.65340558      12.33826859        5
Al       8.59134739       1.65340558      12.33826859        5
Al       1.43189123       4.13351394      12.33826859        5
Al       4.29567370       4.13351394      12.33826859        5
Al       7.15945616       4.13351394      12.33826859        5
Al      10.02323862       4.13351394      12.33826859        5
Al       2.86378246       6.61362231      12.33826859        5
Al       5.72756493       6.61362231      12.33826859        5
Al       8.59134739       6.61362231      12.33826859        5
Al      11.45512986       6.61362231      12.33826859        5
Al       4.29567370       9.09373067      12.33826859        5
Al       7.15945616       9.09373067      12.33826859        5
Al      10.02323862       9.09373067      12.33826859        5
Al      12.88702109       9.09373067      12.33826859        5
Al       0.00000000       0.00000000      14.67653718        4
Al       2.86378246       0.00000000      14.67653718        4
Al       5.72756493       0.00000000      14.67653718        4
Al       8.59134739       0.00000000      14.67653718        4
Al       1.43189123       2.48010836      14.67653718        4
Al       4.29567370       2.48010836      14.67653718        4
Al       7.15945616       2.48010836      14.67653718        4
Al      10.02323862       2.48010836      14.67653718        4
Al       2.86378246       4.96021673      14.67653718        4
Al       5.72756493       4.96021673      14.67653718        4
Al       8.59134739       4.96021673      14.67653718        4
Al      11.45512986       4.96021673      14.67653718        4
Al       4.29567370       7.44032509      14.67653718        4
Al       7.15945616       7.44032509      14.67653718        4
Al      10.02323862       7.44032509      14.67653718        4
Al      12.88702109       7.44032509      14.67653718        4
Al       1.43189123       0.82670279      17.01480577        3
Al       4.29567370       0.82670279      17.01480577        3
Al       7.15945616       0.82670279      17.01480577        3
Al      10.02323862       0.82670279      17.01480577        3
Al       2.86378246       3.30681115      17.01480577        3
Al       5.72756493       3.30681115      17.01480577        3
Al       8.59134739       3.30681115      17.01480577        3
Al      11.45512986       3.30681115      17.01480577        3
Al       4.29567370       5.78691952      17.01480577        3
Al       7.15945616       5.78691952      17.01480577        3
Al      10.02323862       5.78691952      17.01480577        3
Al      12.88702109       5.78691952      17.01480577        3
Al       5.72756493       8.26702788      17.01480577        3
Al       8.59134739       8.26702788      17.01480577        3
Al      11.45512986       8.26702788      17.01480577        3
Al      14.31891232       8.26702788      17.01480577        3
Al      -0.00000000       1.65340558      19.35307436        2
Al       2.86378246       1.65340558      19.35307436        2
Al       5.72756493       1.65340558      19.35307436        2
Al       8.59134739       1.65340558      19.35307436        2
Al       1.43189123       4.13351394      19.35307436        2
Al       4.29567370       4.13351394      19.35307436        2
Al       7.15945616       4.13351394      19.35307436        2
Al      10.02323862       4.13351394      19.35307436        2
Al       2.86378246       6.61362231      19.35307436        2
Al       5.72756493       6.61362231      19.35307436        2
Al       8.59134739       6.61362231      19.35307436        2
Al      11.45512986       6.61362231      19.35307436        2
Al       4.29567370       9.09373067      19.35307436        2
Al       7.15945616       9.09373067      19.35307436        2
Al      10.02323862       9.09373067      19.35307436        2
Al      12.88702109       9.09373067      19.35307436        2
Al       0.00000000       0.00000000      21.69134295        1
Al       2.86378246       0.00000000      21.69134295        1
Al       5.72756493       0.00000000      21.69134295        1
Al       8.59134739       0.00000000      21.69134295        1
Al       1.43189123       2.48010836      21.69134295        1
Al       4.29567370       2.48010836      21.69134295        1
Al       7.15945616       2.48010836      21.69134295        1
Al      10.02323862       2.48010836      21.69134295        1
Al       2.86378246       4.96021673      21.69134295        1
Al       5.72756493       4.96021673      21.69134295        1
Al       8.59134739       4.96021673      21.69134295        1
Al      11.45512986       4.96021673      21.69134295        1
Al       4.29567370       7.44032509      21.69134295        1
Al       7.15945616       7.44032509      21.69134295        1
Al      10.02323862       7.44032509      21.69134295        1
Al      12.88702109       7.44032509      21.69134295        1
C        6.18528471       3.89783549      24.73588972        0
N        7.43766041       3.40275693      24.75856364        0
C        8.19086857       4.52116430      24.68500445        0
N        7.44437414       5.64014582      24.62075924        0
N        6.18854383       5.23668623      24.65343221        0
H        5.29038975       3.29126114      24.77882429        0
H        9.27248896       4.51859450      24.67842322        0
H        5.35685060       5.86647827      24.61984683        0
